REMARK  Name = 
REMARK                            x       y       z     vdW  Elec       q    Type
REMARK                         _______ _______ _______ _____ _____    ______ ____
ROOT
ATOM      1  C   LIG    1        0.750  -6.495   0.000  0.00  0.00    +0.138 C 
ENDROOT
BRANCH   1   3
ATOM      2  O   LIG    1        3.000  -5.196   0.000  0.00  0.00    -0.291 OA
ATOM      3  C   LIG    1        1.500  -5.196   0.000  0.00  0.00    +0.181 C 
BRANCH   3   4
ATOM      4  C   LIG    1        0.750  -3.897   0.000  0.00  0.00    +0.038 C 
ATOM      5  C   LIG    1        1.500  -2.598   0.000  0.00  0.00    +0.003 C 
BRANCH   5   6
ATOM      6  C   LIG    1        0.750  -1.299   0.000  0.00  0.00    +0.000 A 
ATOM      7  C   LIG    1       -0.750  -1.299   0.000  0.00  0.00    +0.003 A 
ATOM      8  C   LIG    1       -1.500   0.000   0.000  0.00  0.00    +0.042 A 
ATOM      9  C   LIG    1       -0.750   1.299   0.000  0.00  0.00    +0.196 A 
ATOM     10  O   LIG    1       -1.500   2.598   0.000  0.00  0.00    -0.287 OA
ATOM     11  C   LIG    1        0.750   1.299   0.000  0.00  0.00    +0.042 A 
ATOM     12  C   LIG    1        1.500   0.000   0.000  0.00  0.00    +0.003 A 
ENDBRANCH   5   6
ENDBRANCH   3   4
ENDBRANCH   1   3
BRANCH   1  13
ATOM     13  C   LIG    1        1.500  -7.794   0.000  0.00  0.00    +0.181 C 
ATOM     14  O   LIG    1        3.000  -7.794   0.000  0.00  0.00    -0.291 OA
BRANCH  13  15
ATOM     15  C   LIG    1        0.750  -9.093   0.000  0.00  0.00    +0.038 C 
ATOM     16  C   LIG    1        1.500 -10.392   0.000  0.00  0.00    +0.003 C 
BRANCH  16  17
ATOM     17  C   LIG    1        0.750 -11.691   0.000  0.00  0.00    +0.000 A 
ATOM     18  C   LIG    1        1.500 -12.990   0.000  0.00  0.00    +0.003 A 
ATOM     19  C   LIG    1        0.750 -14.289   0.000  0.00  0.00    +0.042 A 
ATOM     20  C   LIG    1       -0.750 -14.289   0.000  0.00  0.00    +0.196 A 
ATOM     21  O   LIG    1       -1.500 -15.588   0.000  0.00  0.00    -0.287 OA
ATOM     22  C   LIG    1       -1.500 -12.990   0.000  0.00  0.00    +0.042 A 
ATOM     23  C   LIG    1       -0.750 -11.691   0.000  0.00  0.00    +0.003 A 
ENDBRANCH  16  17
ENDBRANCH  13  15
ENDBRANCH   1  13
TORSDOF 6
