REMARK  Name = 
REMARK                            x       y       z     vdW  Elec       q    Type
REMARK                         _______ _______ _______ _____ _____    ______ ____
ROOT
ATOM      1  C   LIG    1       -3.000   0.000   0.000  0.00  0.00    +0.174 A 
ATOM      2  C   LIG    1       -1.500   0.000   0.000  0.00  0.00    +0.137 A 
ATOM      3  C   LIG    1       -0.750  -1.299   0.000  0.00  0.00    +0.137 A 
ATOM      4  C   LIG    1        0.750  -1.299   0.000  0.00  0.00    +0.169 A 
ATOM      5  N   LIG    1        1.500   0.000   0.000  0.00  0.00    -0.206 NA
ATOM      6  C   LIG    1        0.750   1.299   0.000  0.00  0.00    +0.200 A 
ATOM      7  N   LIG    1       -1.500  -2.598   0.000  0.00  0.00    -0.209 NA
ATOM      8  C   LIG    1       -3.000  -2.598   0.000  0.00  0.00    +0.222 A 
ATOM      9  N   LIG    1       -0.750   1.299   0.000  0.00  0.00    -0.219 NA
ATOM     10  N   LIG    1       -3.750  -1.299   0.000  0.00  0.00    -0.195 NA
ENDROOT
BRANCH   8  11
ATOM     11  N   LIG    1       -3.750  -3.897   0.000  0.00  0.00    -0.275 N 
ATOM     12  C   LIG    1       -3.000  -5.196   0.000  0.00  0.00    +0.112 C 
ATOM     13  C   LIG    1       -3.750  -6.495   0.000  0.00  0.00    +0.110 C 
ATOM     14  N   LIG    1       -5.250  -6.495   0.000  0.00  0.00    -0.214 NA
ATOM     15  C   LIG    1       -6.000  -5.196   0.000  0.00  0.00    +0.110 C 
ATOM     16  C   LIG    1       -5.250  -3.897   0.000  0.00  0.00    +0.112 C 
ENDBRANCH   8  11
BRANCH   1  17
ATOM     17  N   LIG    1       -3.750   1.299   0.000  0.00  0.00    -0.192 NA
BRANCH  17  19
ATOM     18  C   LIG    1       -6.000   0.000   0.000  0.00  0.00    +0.041 A 
ATOM     19  C   LIG    1       -5.250   1.299   0.000  0.00  0.00    +0.078 A 
ATOM     20  C   LIG    1       -6.000   2.598   0.000  0.00  0.00    +0.017 A 
ATOM     21  C   LIG    1       -7.500   2.598   0.000  0.00  0.00    +0.001 A 
ATOM     22  C   LIG    1       -8.250   1.299   0.000  0.00  0.00    +0.001 A 
ATOM     23  C   LIG    1       -7.500   0.000   0.000  0.00  0.00    +0.007 A 
BRANCH  18  25
ATOM     24  C   LIG    1       -6.000  -2.598   0.000  0.00  0.00    +0.074 C 
ATOM     25  S   LIG    1       -5.250  -1.299   0.000  0.00  0.00    -0.111 S 
ENDBRANCH  18  25
ENDBRANCH  17  19
ENDBRANCH   1  17
BRANCH   4  26
ATOM     26  N   LIG    1        1.500  -2.598   0.000  0.00  0.00    -0.219 NA
BRANCH  26  27
ATOM     27  C   LIG    1        3.000  -2.598   0.000  0.00  0.00    +0.114 C 
BRANCH  27  28
ATOM     28  C   LIG    1        3.750  -3.897   0.000  0.00  0.00    +0.022 C 
ATOM     29  C   LIG    1        3.750  -5.397   0.000  0.00  0.00    +0.002 C 
ATOM     30  C   LIG    1        5.049  -4.647   0.000  0.00  0.00    +0.002 C 
ENDBRANCH  27  28
ENDBRANCH  26  27
ENDBRANCH   4  26
TORSDOF 7
