REMARK  Name = 
REMARK                            x       y       z     vdW  Elec       q    Type
REMARK                         _______ _______ _______ _____ _____    ______ ____
ROOT
ATOM      1  C   LIG    1       -1.848   6.464   0.000  0.00  0.00    +0.271 C 
ATOM      2  N   LIG    1       -0.477   7.074   0.000  0.00  0.00    -0.201 NA
ATOM      3  O   LIG    1       -3.061   7.346   0.000  0.00  0.00    -0.268 OA
ENDROOT
BRANCH   1   6
ATOM      4  C   LIG    1       -1.500   2.598   0.000  0.00  0.00    +0.047 A 
ATOM      5  S   LIG    1       -0.890   3.968   0.000  0.00  0.00    -0.081 S 
ATOM      6  C   LIG    1       -2.005   4.972   0.000  0.00  0.00    +0.084 A 
ATOM      7  C   LIG    1       -3.304   4.222   0.000  0.00  0.00    +0.012 A 
ATOM      8  C   LIG    1       -2.992   2.755   0.000  0.00  0.00    +0.009 A 
BRANCH   4  11
ATOM      9  C   LIG    1        1.500   0.000   0.000  0.00  0.00    +0.237 A 
ATOM     10  N   LIG    1        0.750   1.299   0.000  0.00  0.00    -0.212 NA
ATOM     11  C   LIG    1       -0.750   1.299   0.000  0.00  0.00    +0.092 A 
ATOM     12  C   LIG    1       -1.500   0.000   0.000  0.00  0.00    +0.040 A 
ATOM     13  C   LIG    1       -0.750  -1.299   0.000  0.00  0.00    +0.103 A 
ATOM     14  N   LIG    1        0.750  -1.299   0.000  0.00  0.00    -0.211 NA
BRANCH   9  16
ATOM     15  C   LIG    1        3.750  -1.299   0.000  0.00  0.00    +0.139 C 
ATOM     16  N   LIG    1        3.000   0.000   0.000  0.00  0.00    -0.202 NA
ENDBRANCH   9  16
ENDBRANCH   4  11
ENDBRANCH   1   6
BRANCH   2  17
ATOM     17  C   LIG    1       -0.321   8.566   0.000  0.00  0.00    +0.119 C 
BRANCH  17  18
ATOM     18  C   LIG    1       -1.534   9.447   0.000  0.00  0.00    +0.131 C 
ATOM     19  N   LIG    1       -1.377  10.939   0.000  0.00  0.00    -0.129 NA
ENDBRANCH  17  18
BRANCH  17  20
ATOM     20  C   LIG    1        1.050   9.176   0.000  0.00  0.00    +0.050 C 
BRANCH  20  21
ATOM     21  C   LIG    1        1.206  10.668   0.000  0.00  0.00    -0.010 A 
ATOM     22  C   LIG    1        2.577  11.278   0.000  0.00  0.00    +0.055 A 
ATOM     23 CL   LIG    1        3.790  10.396   0.000  0.00  0.00    -0.083 Cl
ATOM     24  C   LIG    1        2.733  12.770   0.000  0.00  0.00    +0.022 A 
ATOM     25  C   LIG    1        1.520  13.651   0.000  0.00  0.00    +0.058 A 
ATOM     26 CL   LIG    1        1.677  15.143   0.000  0.00  0.00    -0.082 Cl
ATOM     27  C   LIG    1        0.150  13.041   0.000  0.00  0.00    +0.011 A 
ATOM     28  C   LIG    1       -0.007  11.549   0.000  0.00  0.00    -0.003 A 
ENDBRANCH  20  21
ENDBRANCH  17  20
ENDBRANCH   2  17
TORSDOF 7
