REMARK  Name = 
REMARK                            x       y       z     vdW  Elec       q    Type
REMARK                         _______ _______ _______ _____ _____    ______ ____
ROOT
ATOM      1  C   LIG    1       -3.750  -3.897   0.000  0.00  0.00    +0.104 A 
ATOM      2  N   LIG    1       -5.242  -4.054   0.000  0.00  0.00    -0.148 NA
ATOM      3  N   LIG    1       -5.554  -5.521   0.000  0.00  0.00    -0.148 NA
ATOM      4  C   LIG    1       -4.255  -6.271   0.000  0.00  0.00    +0.104 A 
ATOM      5  C   LIG    1       -3.140  -5.267   0.000  0.00  0.00    +0.042 A 
ENDROOT
BRANCH   1   7
ATOM      6  C   LIG    1       -1.500  -2.598   0.000  0.00  0.00    +0.002 C 
ATOM      7  C   LIG    1       -3.000  -2.598   0.000  0.00  0.00    +0.021 C 
BRANCH   6  13
ATOM      8  C   LIG    1        1.500   0.000   0.000  0.00  0.00    +0.177 A 
ATOM      9  C   LIG    1        0.750   1.299   0.000  0.00  0.00    +0.229 A 
ATOM     10  O   LIG    1        1.500   2.598   0.000  0.00  0.00    -0.283 OA
ATOM     11  C   LIG    1       -0.750   1.299   0.000  0.00  0.00    +0.045 A 
ATOM     12  C   LIG    1       -1.500   0.000   0.000  0.00  0.00    +0.003 A 
ATOM     13  C   LIG    1       -0.750  -1.299   0.000  0.00  0.00    +0.003 A 
ATOM     14  C   LIG    1        0.750  -1.299   0.000  0.00  0.00    +0.040 A 
BRANCH   8  16
ATOM     15  C   LIG    1        3.750  -1.299   0.000  0.00  0.00    +0.253 C 
ATOM     16  O   LIG    1        3.000   0.000   0.000  0.00  0.00    -0.468 OA
ENDBRANCH   8  16
ENDBRANCH   6  13
ENDBRANCH   1   7
BRANCH   4  17
ATOM     17  C   LIG    1       -4.098  -7.763   0.000  0.00  0.00    +0.021 C 
ATOM     18  C   LIG    1       -5.311  -8.645   0.000  0.00  0.00    +0.002 C 
BRANCH  18  19
ATOM     19  C   LIG    1       -5.155 -10.136   0.000  0.00  0.00    +0.003 A 
ATOM     20  C   LIG    1       -3.784 -10.746   0.000  0.00  0.00    +0.040 A 
ATOM     21  C   LIG    1       -3.627 -12.238   0.000  0.00  0.00    +0.177 A 
ATOM     22  C   LIG    1       -4.841 -13.120   0.000  0.00  0.00    +0.229 A 
ATOM     23  O   LIG    1       -4.684 -14.612   0.000  0.00  0.00    -0.283 OA
ATOM     24  C   LIG    1       -6.211 -12.510   0.000  0.00  0.00    +0.045 A 
ATOM     25  C   LIG    1       -6.368 -11.018   0.000  0.00  0.00    +0.003 A 
BRANCH  21  26
ATOM     26  O   LIG    1       -2.257 -12.848   0.000  0.00  0.00    -0.468 OA
ATOM     27  C   LIG    1       -1.044 -11.967   0.000  0.00  0.00    +0.253 C 
ENDBRANCH  21  26
ENDBRANCH  18  19
ENDBRANCH   4  17
TORSDOF 6
