REMARK  Name = 
REMARK                            x       y       z     vdW  Elec       q    Type
REMARK                         _______ _______ _______ _____ _____    ______ ____
ROOT
ATOM      1  C   LIG    1       -3.750  -3.897   0.000  0.00  0.00    +0.199 C 
ATOM      2  C   LIG    1       -5.250  -3.897   0.000  0.00  0.00    +0.084 C 
ATOM      3  O   LIG    1       -3.000  -5.196   0.000  0.00  0.00    -0.286 OA
ENDROOT
BRANCH   1   5
ATOM      4  C   LIG    1       -1.500  -2.598   0.000  0.00  0.00    +0.003 C 
ATOM      5  C   LIG    1       -3.000  -2.598   0.000  0.00  0.00    +0.042 C 
BRANCH   4  11
ATOM      6  C   LIG    1        1.500   0.000   0.000  0.00  0.00    +0.177 A 
ATOM      7  C   LIG    1        0.750   1.299   0.000  0.00  0.00    +0.229 A 
ATOM      8  O   LIG    1        1.500   2.598   0.000  0.00  0.00    -0.283 OA
ATOM      9  C   LIG    1       -0.750   1.299   0.000  0.00  0.00    +0.045 A 
ATOM     10  C   LIG    1       -1.500   0.000   0.000  0.00  0.00    +0.003 A 
ATOM     11  C   LIG    1       -0.750  -1.299   0.000  0.00  0.00    +0.003 A 
ATOM     12  C   LIG    1        0.750  -1.299   0.000  0.00  0.00    +0.040 A 
BRANCH   6  14
ATOM     13  C   LIG    1        3.750  -1.299   0.000  0.00  0.00    +0.253 C 
ATOM     14  O   LIG    1        3.000   0.000   0.000  0.00  0.00    -0.468 OA
ENDBRANCH   6  14
ENDBRANCH   4  11
ENDBRANCH   1   5
BRANCH   2  15
ATOM     15  C   LIG    1       -6.000  -5.196   0.000  0.00  0.00    +0.199 C 
ATOM     16  O   LIG    1       -5.250  -6.495   0.000  0.00  0.00    -0.286 OA
BRANCH  15  17
ATOM     17  C   LIG    1       -7.500  -5.196   0.000  0.00  0.00    +0.042 C 
ATOM     18  C   LIG    1       -8.250  -6.495   0.000  0.00  0.00    +0.003 C 
BRANCH  18  19
ATOM     19  C   LIG    1       -9.750  -6.495   0.000  0.00  0.00    +0.000 A 
ATOM     20  C   LIG    1      -10.500  -7.794   0.000  0.00  0.00    +0.003 A 
ATOM     21  C   LIG    1      -12.000  -7.794   0.000  0.00  0.00    +0.042 A 
ATOM     22  C   LIG    1      -12.750  -6.495   0.000  0.00  0.00    +0.196 A 
ATOM     23  O   LIG    1      -14.250  -6.495   0.000  0.00  0.00    -0.287 OA
ATOM     24  C   LIG    1      -12.000  -5.196   0.000  0.00  0.00    +0.042 A 
ATOM     25  C   LIG    1      -10.500  -5.196   0.000  0.00  0.00    +0.003 A 
ENDBRANCH  18  19
ENDBRANCH  15  17
ENDBRANCH   2  15
TORSDOF 6
