REMARK  Name = 
REMARK                            x       y       z     vdW  Elec       q    Type
REMARK                         _______ _______ _______ _____ _____    ______ ____
ROOT
ATOM      1  N   LIG    1       -4.255  -6.271   0.000  0.00  0.00    -0.238 N 
ATOM      2  C   LIG    1       -5.554  -5.521   0.000  0.00  0.00    +0.165 A 
ATOM      3  C   LIG    1       -5.242  -4.054   0.000  0.00  0.00    +0.086 A 
ATOM      4  C   LIG    1       -6.356  -3.050   0.000  0.00  0.00    +0.175 A 
ATOM      5  N   LIG    1       -7.783  -3.514   0.000  0.00  0.00    -0.206 NA
ATOM      6  C   LIG    1       -8.095  -4.981   0.000  0.00  0.00    +0.202 A 
ATOM      7  N   LIG    1       -6.045  -1.583   0.000  0.00  0.00    -0.107 NA
ATOM      8  C   LIG    1       -3.750  -3.897   0.000  0.00  0.00    +0.089 A 
ATOM      9  N   LIG    1       -6.980  -5.985   0.000  0.00  0.00    -0.205 NA
ATOM     10  N   LIG    1       -3.140  -5.267   0.000  0.00  0.00    -0.172 NA
ENDROOT
BRANCH   1  12
ATOM     11  C   LIG    1       -2.606  -7.606   0.000  0.00  0.00    +0.024 C 
ATOM     12  C   LIG    1       -4.098  -7.763   0.000  0.00  0.00    +0.088 C 
ATOM     13  C   LIG    1       -3.941  -9.255   0.000  0.00  0.00    +0.024 C 
ATOM     14  C   LIG    1       -5.590  -7.920   0.000  0.00  0.00    +0.024 C 
ENDBRANCH   1  12
BRANCH   8  15
ATOM     15  C   LIG    1       -3.000  -2.598   0.000  0.00  0.00    +0.074 C 
BRANCH  15  16
ATOM     16  C   LIG    1       -1.500  -2.598   0.000  0.00  0.00    -0.016 A 
ATOM     17  C   LIG    1       -0.750  -1.299   0.000  0.00  0.00    -0.004 A 
ATOM     18  C   LIG    1        0.750  -1.299   0.000  0.00  0.00    -0.000 A 
ATOM     19  C   LIG    1        1.500   0.000   0.000  0.00  0.00    -0.000 A 
ATOM     20  C   LIG    1        0.750   1.299   0.000  0.00  0.00    -0.000 A 
ATOM     21  C   LIG    1       -0.750   1.299   0.000  0.00  0.00    -0.000 A 
ATOM     22  C   LIG    1        1.500  -2.598   0.000  0.00  0.00    -0.000 A 
ATOM     23  C   LIG    1        0.750  -3.897   0.000  0.00  0.00    -0.000 A 
ATOM     24  C   LIG    1       -1.500   0.000   0.000  0.00  0.00    -0.000 A 
ATOM     25  C   LIG    1       -0.750  -3.897   0.000  0.00  0.00    -0.004 A 
ENDBRANCH  15  16
ENDBRANCH   8  15
TORSDOF 3
