REMARK  Name = 
REMARK                            x       y       z     vdW  Elec       q    Type
REMARK                         _______ _______ _______ _____ _____    ______ ____
ROOT
ATOM      1  N   LIG    1       -5.308  -1.848   0.000  0.00  0.00    -0.238 N 
ATOM      2  C   LIG    1       -5.308  -3.348   0.000  0.00  0.00    +0.165 A 
ATOM      3  C   LIG    1       -3.882  -3.812   0.000  0.00  0.00    +0.090 A 
ATOM      4  C   LIG    1       -3.570  -5.279   0.000  0.00  0.00    +0.176 A 
ATOM      5  N   LIG    1       -4.684  -6.282   0.000  0.00  0.00    -0.206 NA
ATOM      6  C   LIG    1       -6.111  -5.819   0.000  0.00  0.00    +0.202 A 
ATOM      7  N   LIG    1       -2.143  -5.742   0.000  0.00  0.00    -0.107 NA
ATOM      8  C   LIG    1       -3.000  -2.598   0.000  0.00  0.00    +0.107 A 
ATOM      9  N   LIG    1       -6.423  -4.352   0.000  0.00  0.00    -0.205 NA
ATOM     10  N   LIG    1       -3.882  -1.385   0.000  0.00  0.00    -0.168 NA
ENDROOT
BRANCH   8  11
ATOM     11  C   LIG    1       -1.500  -2.598   0.000  0.00  0.00    +0.020 A 
ATOM     12  C   LIG    1       -0.750  -1.299   0.000  0.00  0.00    +0.002 A 
ATOM     13  C   LIG    1        0.750  -1.299   0.000  0.00  0.00    +0.000 A 
ATOM     14  C   LIG    1        1.500   0.000   0.000  0.00  0.00    +0.000 A 
ATOM     15  C   LIG    1        0.750   1.299   0.000  0.00  0.00    +0.000 A 
ATOM     16  C   LIG    1       -0.750   1.299   0.000  0.00  0.00    +0.000 A 
ATOM     17  C   LIG    1        1.500  -2.598   0.000  0.00  0.00    +0.000 A 
ATOM     18  C   LIG    1        0.750  -3.897   0.000  0.00  0.00    +0.000 A 
ATOM     19  C   LIG    1       -1.500   0.000   0.000  0.00  0.00    +0.000 A 
ATOM     20  C   LIG    1       -0.750  -3.897   0.000  0.00  0.00    +0.002 A 
ENDBRANCH   8  11
BRANCH   1  22
ATOM     21  C   LIG    1       -5.640   0.247   0.000  0.00  0.00    +0.024 C 
ATOM     22  C   LIG    1       -6.522  -0.966   0.000  0.00  0.00    +0.088 C 
ATOM     23  C   LIG    1       -7.735  -0.085   0.000  0.00  0.00    +0.024 C 
ATOM     24  C   LIG    1       -7.404  -2.180   0.000  0.00  0.00    +0.024 C 
ENDBRANCH   1  22
TORSDOF 2
