REMARK  Name = 
REMARK                            x       y       z     vdW  Elec       q    Type
REMARK                         _______ _______ _______ _____ _____    ______ ____
ROOT
ATOM      1  C   LIG    1       -3.750  -3.897   0.000  0.00  0.00    +0.103 A 
ATOM      2  N   LIG    1       -5.242  -4.054   0.000  0.00  0.00    -0.165 NA
ATOM      3  N   LIG    1       -5.554  -5.521   0.000  0.00  0.00    -0.230 N 
ATOM      4  C   LIG    1       -4.255  -6.271   0.000  0.00  0.00    +0.084 A 
ATOM      5  C   LIG    1       -3.140  -5.267   0.000  0.00  0.00    +0.040 A 
ENDROOT
BRANCH   3   6
ATOM      6  C   LIG    1       -6.924  -6.131   0.000  0.00  0.00    +0.083 A 
ATOM      7  C   LIG    1       -7.081  -7.623   0.000  0.00  0.00    +0.019 A 
ATOM      8  C   LIG    1       -8.451  -8.233   0.000  0.00  0.00    +0.002 A 
ATOM      9  C   LIG    1       -9.665  -7.351   0.000  0.00  0.00    +0.000 A 
ATOM     10  C   LIG    1       -9.508  -5.860   0.000  0.00  0.00    +0.002 A 
ATOM     11  C   LIG    1       -8.137  -5.250   0.000  0.00  0.00    +0.019 A 
ENDBRANCH   3   6
BRANCH   1  13
ATOM     12  C   LIG    1       -1.500  -2.598   0.000  0.00  0.00    +0.002 C 
ATOM     13  C   LIG    1       -3.000  -2.598   0.000  0.00  0.00    +0.021 C 
BRANCH  12  19
ATOM     14  C   LIG    1        1.500   0.000   0.000  0.00  0.00    +0.177 A 
ATOM     15  C   LIG    1        0.750   1.299   0.000  0.00  0.00    +0.229 A 
ATOM     16  O   LIG    1        1.500   2.598   0.000  0.00  0.00    -0.283 OA
ATOM     17  C   LIG    1       -0.750   1.299   0.000  0.00  0.00    +0.045 A 
ATOM     18  C   LIG    1       -1.500   0.000   0.000  0.00  0.00    +0.003 A 
ATOM     19  C   LIG    1       -0.750  -1.299   0.000  0.00  0.00    +0.003 A 
ATOM     20  C   LIG    1        0.750  -1.299   0.000  0.00  0.00    +0.040 A 
BRANCH  14  22
ATOM     21  C   LIG    1        3.750  -1.299   0.000  0.00  0.00    +0.253 C 
ATOM     22  O   LIG    1        3.000   0.000   0.000  0.00  0.00    -0.468 OA
ENDBRANCH  14  22
ENDBRANCH  12  19
ENDBRANCH   1  13
BRANCH   4  23
ATOM     23  C   LIG    1       -4.098  -7.763   0.000  0.00  0.00    +0.019 C 
ATOM     24  C   LIG    1       -5.311  -8.645   0.000  0.00  0.00    +0.002 C 
BRANCH  24  25
ATOM     25  C   LIG    1       -5.155 -10.136   0.000  0.00  0.00    +0.003 A 
ATOM     26  C   LIG    1       -3.784 -10.746   0.000  0.00  0.00    +0.040 A 
ATOM     27  C   LIG    1       -3.627 -12.238   0.000  0.00  0.00    +0.177 A 
ATOM     28  C   LIG    1       -4.841 -13.120   0.000  0.00  0.00    +0.229 A 
ATOM     29  O   LIG    1       -4.684 -14.612   0.000  0.00  0.00    -0.283 OA
ATOM     30  C   LIG    1       -6.211 -12.510   0.000  0.00  0.00    +0.045 A 
ATOM     31  C   LIG    1       -6.368 -11.018   0.000  0.00  0.00    +0.003 A 
BRANCH  27  32
ATOM     32  O   LIG    1       -2.257 -12.848   0.000  0.00  0.00    -0.468 OA
ATOM     33  C   LIG    1       -1.044 -11.967   0.000  0.00  0.00    +0.253 C 
ENDBRANCH  27  32
ENDBRANCH  24  25
ENDBRANCH   4  23
TORSDOF 7
