REMARK  Name = 
REMARK                            x       y       z     vdW  Elec       q    Type
REMARK                         _______ _______ _______ _____ _____    ______ ____
ROOT
ATOM      1  C   LIG    1        4.849  -4.523   0.000  0.00  0.00    +0.109 C 
ATOM      2  C   LIG    1        4.158  -3.192   0.000  0.00  0.00    +0.176 C 
ATOM      3  C   LIG    1        2.659  -3.125   0.000  0.00  0.00    +0.192 C 
ATOM      4  N   LIG    1        1.214  -2.726   0.000  0.00  0.00    -0.305 N 
ATOM      5  C   LIG    1        0.000  -3.607   0.000  0.00  0.00    +0.077 A 
ATOM      6  C   LIG    1       -1.214  -2.726   0.000  0.00  0.00    +0.017 A 
ATOM      7  C   LIG    1       -2.552  -3.569   0.000  0.00  0.00    +0.005 A 
ATOM      8  C   LIG    1       -3.956  -3.042   0.000  0.00  0.00    +0.142 C 
ATOM      9  N   LIG    1       -4.891  -4.215   0.000  0.00  0.00    -0.197 NA
ATOM     10  C   LIG    1       -4.065  -5.467   0.000  0.00  0.00    +0.265 C 
ATOM     11  O   LIG    1       -4.592  -6.871   0.000  0.00  0.00    -0.268 OA
ATOM     12  C   LIG    1       -2.619  -5.068   0.000  0.00  0.00    +0.054 A 
ATOM     13  C   LIG    1       -1.355  -5.875   0.000  0.00  0.00    +0.023 A 
ATOM     14  C   LIG    1       -1.021  -7.338   0.000  0.00  0.00    +0.017 A 
ATOM     15  C   LIG    1        0.473  -7.472   0.000  0.00  0.00    +0.062 A 
ATOM     16  N   LIG    1        1.062  -6.093   0.000  0.00  0.00    -0.304 N 
ATOM     17  C   LIG    1        2.538  -5.825   0.000  0.00  0.00    +0.208 C 
ATOM     18  C   LIG    1        1.103  -8.833   0.000  0.00  0.00    +0.017 A 
ATOM     19  C   LIG    1        0.240 -10.060   0.000  0.00  0.00    +0.001 A 
ATOM     20  C   LIG    1       -1.254  -9.925   0.000  0.00  0.00    +0.000 A 
ATOM     21  C   LIG    1       -1.885  -8.564   0.000  0.00  0.00    +0.001 A 
ATOM     22  C   LIG    1       -0.750  -1.299   0.000  0.00  0.00    +0.017 A 
ATOM     23  C   LIG    1       -1.500   0.000   0.000  0.00  0.00    +0.001 A 
ATOM     24  C   LIG    1       -0.750   1.299   0.000  0.00  0.00    +0.000 A 
ATOM     25  C   LIG    1        0.750   1.299   0.000  0.00  0.00    +0.001 A 
ATOM     26  C   LIG    1        1.500   0.000   0.000  0.00  0.00    +0.017 A 
ATOM     27  C   LIG    1       -0.067  -5.106   0.000  0.00  0.00    +0.078 A 
ATOM     28  C   LIG    1        0.750  -1.299   0.000  0.00  0.00    +0.062 A 
ATOM     29  C   LIG    1        3.646  -1.995   0.000  0.00  0.00    +0.057 C 
ATOM     30  O   LIG    1        3.249  -4.504   0.000  0.00  0.00    -0.319 OA
ATOM     31  C   LIG    1        4.041  -5.787   0.000  0.00  0.00    +0.074 C 
ENDROOT
BRANCH   1  33
ATOM     32  C   LIG    1        7.038  -5.922   0.000  0.00  0.00    +0.107 C 
ATOM     33  N   LIG    1        6.347  -4.591   0.000  0.00  0.00    -0.215 NA
ENDBRANCH   1  33
BRANCH   2  34
ATOM     34  O   LIG    1        4.965  -1.928   0.000  0.00  0.00    -0.348 OA
ATOM     35  C   LIG    1        6.464  -1.995   0.000  0.00  0.00    +0.174 C 
ENDBRANCH   2  34
TORSDOF 2
